Version 4.1
SHEET 1 3284 2032
WIRE -1312 928 -1472 928
WIRE -800 928 -1312 928
WIRE -576 928 -800 928
WIRE -176 928 -576 928
WIRE 112 928 -176 928
WIRE -800 960 -800 928
WIRE -576 960 -576 928
WIRE -176 960 -176 928
WIRE 112 960 112 928
WIRE -800 1072 -800 1040
WIRE -576 1072 -576 1040
WIRE -176 1072 -176 1040
WIRE 112 1072 112 1040
WIRE -688 1120 -736 1120
WIRE -640 1120 -688 1120
WIRE -32 1120 -112 1120
WIRE 48 1120 -32 1120
WIRE -800 1200 -800 1168
WIRE -688 1200 -688 1120
WIRE -688 1200 -800 1200
WIRE -32 1200 -32 1120
WIRE 112 1200 112 1168
WIRE 112 1200 -32 1200
WIRE -1472 1216 -1472 928
WIRE 112 1232 112 1200
WIRE -576 1280 -576 1168
WIRE -432 1280 -576 1280
WIRE -64 1280 -432 1280
WIRE 48 1280 -64 1280
WIRE -800 1296 -800 1200
WIRE -1312 1344 -1312 928
WIRE -1280 1344 -1312 1344
WIRE -1120 1344 -1152 1344
WIRE -976 1344 -1040 1344
WIRE -864 1344 -976 1344
WIRE -176 1344 -176 1168
WIRE -176 1344 -304 1344
WIRE -64 1360 -64 1280
WIRE -16 1360 -64 1360
WIRE 112 1360 112 1328
WIRE 112 1360 64 1360
WIRE 256 1360 112 1360
WIRE -432 1376 -432 1280
WIRE -176 1376 -176 1344
WIRE -304 1424 -304 1344
WIRE -304 1424 -368 1424
WIRE -240 1424 -304 1424
WIRE -976 1440 -976 1344
WIRE -800 1456 -800 1392
WIRE 256 1456 256 1360
WIRE -432 1504 -432 1472
WIRE -176 1504 -176 1472
WIRE -1472 1616 -1472 1296
WIRE -1216 1616 -1216 1392
WIRE -1216 1616 -1472 1616
WIRE -976 1616 -976 1504
WIRE -976 1616 -1216 1616
WIRE -800 1616 -800 1536
WIRE -800 1616 -976 1616
WIRE -432 1616 -432 1584
WIRE -432 1616 -800 1616
WIRE -176 1616 -176 1584
WIRE -176 1616 -432 1616
WIRE 256 1616 256 1536
WIRE 256 1616 -176 1616
WIRE -1472 1648 -1472 1616
FLAG -1472 1648 0
FLAG 256 1360 OUT
SYMBOL res 96 944 R0
SYMATTR InstName R5
SYMATTR Value 5
SYMBOL res -192 944 R0
SYMATTR InstName R4
SYMATTR Value 50
SYMBOL pnp 48 1168 M180
WINDOW 0 72 68 Left 2
WINDOW 3 72 28 Left 2
SYMATTR InstName Q5
SYMATTR Value 2N3906
SYMBOL pnp -112 1168 R180
WINDOW 0 72 68 Left 2
WINDOW 3 72 28 Left 2
SYMATTR InstName Q4
SYMATTR Value 2N3906
SYMBOL NPN 48 1232 R0
WINDOW 0 60 24 Left 2
WINDOW 3 60 68 Left 2
SYMATTR InstName Q8
SYMATTR Value BD139
SYMBOL voltage -1472 1200 R0
WINDOW 123 0 0 Left 0
WINDOW 39 0 0 Left 0
SYMATTR InstName V1
SYMATTR Value 30
SYMBOL voltage 256 1440 R0
WINDOW 123 0 0 Left 0
WINDOW 39 0 0 Left 0
SYMATTR InstName Vout
SYMATTR Value PULSE(3 30V 0 10m)
SYMBOL res 80 1344 R90
WINDOW 0 0 56 VBottom 2
WINDOW 3 32 56 VTop 2
SYMATTR InstName R6
SYMATTR Value 4700
SYMBOL pnp -736 1168 R180
WINDOW 0 72 68 Left 2
WINDOW 3 72 28 Left 2
SYMATTR InstName Q2
SYMATTR Value 2N3906
SYMBOL pnp -640 1168 M180
WINDOW 0 72 68 Left 2
WINDOW 3 72 28 Left 2
SYMATTR InstName Q3
SYMATTR Value 2N3906
SYMBOL NPN -864 1296 R0
WINDOW 0 60 24 Left 2
WINDOW 3 60 68 Left 2
SYMATTR InstName Q1
SYMATTR Value 2N3904
SYMBOL res -816 1440 R0
SYMATTR InstName R2
SYMATTR Value 85
SYMBOL res -816 944 R0
SYMATTR InstName R7
SYMATTR Value 100
SYMBOL res -592 944 R0
SYMATTR InstName R8
SYMATTR Value 100
SYMBOL LED -992 1440 R0
SYMATTR InstName D1
SYMATTR Value GaAsP_LED
SYMBOL res -1024 1328 R90
WINDOW 0 0 56 VBottom 2
WINDOW 3 32 56 VTop 2
SYMATTR InstName R1
SYMATTR Value 810
SYMBOL sym\\reg3all -1152 1360 R0
SYMATTR InstName U1
SYMATTR SpiceModel LM7805
SYMBOL NPN -240 1376 R0
WINDOW 0 60 24 Left 2
WINDOW 3 60 68 Left 2
SYMATTR InstName Q7
SYMATTR Value 2N3904
SYMBOL NPN -368 1376 M0
WINDOW 0 60 24 Left 2
WINDOW 3 60 68 Left 2
SYMATTR InstName Q6
SYMATTR Value 2N3904
SYMBOL res -192 1488 R0
SYMATTR InstName R3
SYMATTR Value 30
SYMBOL res -448 1488 R0
SYMATTR InstName R9
SYMATTR Value 30
TEXT 240 944 Left 2 !.tran 10m
TEXT 240 976 Left 2 !.step temp 0 60 20
TEXT 240 1008 Left 2 !.model GaAsP_LED AKO: QTLP690C D(Eg=1.9 Xti=3)
TEXT 240 1040 Left 2 !.lib regulators.lib
TEXT 240 1072 Left 2 !;.step param Rsense list 85 1750
TEXT -1480 1704 Left 2 !.MODEL BD139 NPN ( IS=2.3985E-13 BF=244.9 NF=1.0 BR=78.11 NR=1.007 ISE=1.0471E-14 NE=1.2 ISC=1.9314E-11 NC=1.45 VAF=98.5 VAR=7.46 IKF=1.1863 IKR=0.1445 RB=2.14 RBM=0.001 IRB=0.031 RE=0.0832 RC=0.01 CJE=2.92702E-10 VJE=0.67412 MJE=0.3300 FC=0.5 CJC=4.8831E-11 VJC=0.5258 MJC=0.3928 XCJC=0.5287 XTB=1.1398 EG=1.2105 XTI=3.0 Vceo=80 Icrating=3 mfg=fairchild)
